
Note: No compatibility mode selected!


Circuit: * dram simulation - refactored for clarity

Doing analysis at TEMP = 27.000000 and TNOM = 27.000000

Warning: vbl2: no DC value, transient time 0 value used
Warning: vwl2: no DC value, transient time 0 value used
Warning: vbl1: no DC value, transient time 0 value used
Warning: vwl1: no DC value, transient time 0 value used
Using transient initial conditions

No. of Data Rows : 621
	* dram simulation - refactored for clarity

    11 : .model mynmos_model nmos (level=1 vto=0.7 kp=120u w=0.1u l=0.1u)
    13 : vwl1 c1_wl 0 pwl(0 0 3.448140e-06 2.0 3.948140e-06 2.0 3.949140e-06 0 3.949240e-06 2.0 4.449240e-06 2.0 4.450240e-06 0 7.578434e-06 2.0 8.078434e-06 2.0 8.079434e-06 0 1.181405e-05 2.0 1.231405e-05 2.0 1.231505e-05 0 1.433395e-05 2.0 1.483395e-05 2.0 1.483495e-05 0 1.846755e-05 2.0 1.896755e-05 2.0 1.896855e-05 0 2.000000e-05 0)
    14 : vbl1 c1_bl 0 pwl(0 0 3.448140e-06 0 3.948140e-06 0 3.949140e-06 0 3.949240e-06 0 4.449240e-06 0 4.450240e-06 0 7.578434e-06 1.2 8.078434e-06 1.2 8.079434e-06 0 1.181405e-05 0 1.231405e-05 0 1.231505e-05 0 1.433395e-05 1.2 1.483395e-05 1.2 1.483495e-05 0 1.846755e-05 1.2 1.896755e-05 1.2 1.896855e-05 0 2.000000e-05 0)
    15 : cc1 c1_node 0    3.000000000000000e-14   
    16 : rcl1 c1_node 0    3.000000000000000e+12   
    17 : m1 c1_bl c1_wl c1_node 0 mynmos_model
    19 : vwl2 c2_wl 0 pwl(0 0 3.598140e-06 2.0 4.098140e-06 2.0 4.099140e-06 0 4.099240e-06 2.0 4.599240e-06 2.0 4.600240e-06 0 7.728434e-06 2.0 8.228434e-06 2.0 8.229434e-06 0 1.196405e-05 2.0 1.246405e-05 2.0 1.246505e-05 0 1.448395e-05 2.0 1.498395e-05 2.0 1.498495e-05 0 1.861755e-05 2.0 1.911755e-05 2.0 1.911855e-05 0 2.000000e-05 0)
    20 : vbl2 c2_bl 0 pwl(0 0 3.598140e-06 1.2 4.098140e-06 1.2 4.099140e-06 0 4.099240e-06 0 4.599240e-06 0 4.600240e-06 0 7.728434e-06 0 8.228434e-06 0 8.229434e-06 0 1.196405e-05 0 1.246405e-05 0 1.246505e-05 0 1.448395e-05 0 1.498395e-05 0 1.498495e-05 0 1.861755e-05 0 1.911755e-05 0 1.911855e-05 0 2.000000e-05 0)
    21 : cc2 c2_node 0    3.000000000000000e-14   
    22 : rcl2 c2_node 0    3.000000000000000e+12   
    23 : m2 c2_bl c2_wl c2_node 0 mynmos_model
    25 : ccouple_cells c1_node c2_node    2.500000000000000e-14   
    26 : rcouple_cells c1_node c2_node    1.000000000000000e+08   
    28 : .tran    5.000000000000000e-08     20e-6 uic
    23 : .end
ngspice-37 done
